! Generated by BlenderFDS 5.0.0 on Blender 2.83.3
! Date: <Mon, 21 Sep 2020, 14:30:01>
! File: </home/egissi/test/untitled.blend>
! --- Case from Blender Scene <geom_binary_name_relative_path>
&HEAD CHID='geom_binary_name_relative_path' TITLE='This is an example case' /
&TIME T_END=1.0 /

! --- Boundary conditions from related Blender Materials
&SURF ID='Burner bc' RGB=255,0,0 HRRPUA=500.000 /
&SURF ID='Material bc' RGB=204,166,111 /
 
! --- Geometric namelists from Blender Collection <Master Collection>
! --- Geometric namelists from Blender Collection <Collection>
! GEOM Vertices: 24 | Faces: 36
&GEOM ID='Cube' SURF_ID='Material bc','Burner bc' BINARY_FILE='geom/Cube.bingeom' /
! MESH Cell Size: 0.400 m, 0.400 m, 0.400 m | Qty: 1000 | Aspect: 1.0 | Poisson: Yes
&MESH ID='Domain' IJK=10,10,10
      XB=-2.000000,2.000000,-2.000000,2.000000,0.000000,4.000000 /

&TAIL /
 
