! Generated by BlenderFDS 5.0.2 on Blender 2.91.0
! Date: <Fri, 05 Feb 2021, 07:37:27>
! File: <...blenderfds/verification/test_view_layer_export/VL_1.blend>
! --- Case from Blender Scene <VL_1>
&HEAD CHID='VL_1' TITLE='This is an example case' /
&TIME T_END=120.0 /
&REAC ID='Example' FUEL='PROPANE' CO_YIELD=0.010 SOOT_YIELD=0.020
      HEAT_OF_COMBUSTION=46420.0 /

! --- Free text from Blender Text <Text>
! Insert here other non-geometrical namelists
&BNDF QUANTITY='WALL TEMPERATURE' /
&BNDF QUANTITY='BURNING RATE' /

! --- Boundary conditions from related Blender Materials
&SURF ID='Burner bc' RGB=255,0,0 HRRPUA=500.000 /
&SURF ID='Material bc' RGB=204,166,111 /
 
! --- Geometric namelists from Blender Collection <Master Collection>
! --- Geometric namelists from Blender Collection <Collection>
&VENT ID='Burner' SURF_ID='Burner bc'
      XB=-1.000000,1.000000,-1.000000,1.000000,2.010000,2.010000 /
&OBST ID='Cube' SURF_ID='Material bc'
      XB=-1.000000,1.000000,-1.000000,1.000000,0.000000,2.000000 /
&SLCF ID='Temp slice' QUANTITY='TEMPERATURE' VECTOR=T CELL_CENTERED=T
      PBX=0.000000 /

&TAIL /
 