! Generated by BlenderFDS 5.0.2 on Blender 2.91.0
! Date: <Fri, 05 Feb 2021, 07:34:08>
! File: <...blenderfds/verification/test_view_layer_export/VL_2.blend>
! --- Case from Blender Scene <VL_2>
&HEAD CHID='VL_2' TITLE='This is an example case' /
&TIME T_END=120.0 /
&REAC ID='Example' FUEL='PROPANE' CO_YIELD=0.010 SOOT_YIELD=0.020
      HEAT_OF_COMBUSTION=46420.0 /

! --- Free text from Blender Text <Text>
! Insert here other non-geometrical namelists
&BNDF QUANTITY='WALL TEMPERATURE' /
&BNDF QUANTITY='BURNING RATE' /

! --- Boundary conditions from related Blender Materials
&SURF ID='Burner bc' RGB=255,0,0 HRRPUA=500.000 /
&SURF ID='Material bc' RGB=204,166,111 /
 
! --- Geometric namelists from Blender Collection <Master Collection>

&TAIL /
 