! Generated by BlenderFDS 5.0.2 on Blender 2.91.0
! Date: <Fri, 05 Feb 2021, 07:37:39>
! File: <...enderfds/verification/test_view_layer_export/VL_all.blend>
! --- Case from Blender Scene <VL_all>
&HEAD CHID='VL_all' TITLE='This is an example case' /
&TIME T_END=120.0 /
&REAC ID='Example' FUEL='PROPANE' CO_YIELD=0.010 SOOT_YIELD=0.020
      HEAT_OF_COMBUSTION=46420.0 /

! --- Free text from Blender Text <Text>
! Insert here other non-geometrical namelists
&BNDF QUANTITY='WALL TEMPERATURE' /
&BNDF QUANTITY='BURNING RATE' /

! --- Boundary conditions from related Blender Materials
&SURF ID='Burner bc' RGB=255,0,0 HRRPUA=500.000 /
&SURF ID='Material bc' RGB=204,166,111 /
 
! --- Geometric namelists from Blender Collection <Master Collection>
! --- Geometric namelists from Blender Collection <Collection>
&VENT ID='Burner' SURF_ID='Burner bc'
      XB=-1.000000,1.000000,-1.000000,1.000000,2.010000,2.010000 /
&OBST ID='Cube' SURF_ID='Material bc'
      XB=-1.000000,1.000000,-1.000000,1.000000,0.000000,2.000000 /
&SLCF ID='Temp slice' QUANTITY='TEMPERATURE' VECTOR=T CELL_CENTERED=T
      PBX=0.000000 /
! --- Geometric namelists from Blender Collection <Collection 2>
! MESH Cell Size: 0.200 m, 0.200 m, 0.200 m | Qty: 8000 | Aspect: 1.0 | Poisson: Yes
&MESH ID='Domain' IJK=20,20,20
      XB=-2.000000,2.000000,-2.000000,2.000000,0.000000,4.000000 /
! PB* Planes: 5
&VENT ID='Domain bcs_0' PBX=-2.000000 SURF_ID='OPEN' /
&VENT ID='Domain bcs_1' PBX=2.000000 SURF_ID='OPEN' /
&VENT ID='Domain bcs_2' PBY=-2.000000 SURF_ID='OPEN' /
&VENT ID='Domain bcs_3' PBY=2.000000 SURF_ID='OPEN' /
&VENT ID='Domain bcs_4' PBZ=4.000000 SURF_ID='OPEN' /

&TAIL /
 