! Generated by BlenderFDS 5.0.0 on Blender 2.90.0
! Date: <Tue, 22 Sep 2020, 17:24:23>
! File: <not saved>
! --- Case from Blender Scene <geom_move>
&HEAD CHID='geom_move' TITLE='This is an example case' /
&TIME T_END=1.0 /

! --- Boundary conditions from related Blender Materials
&SURF ID='Blue bc' RGB=0,0,255 /
&SURF ID='Dark blue bc' RGB=0,0,100 /
&SURF ID='Dark green bc' RGB=0,100,0 /
&SURF ID='Dark red bc' RGB=100,0,0 /
&SURF ID='Green bc' RGB=0,255,0 /
&SURF ID='Red bc' RGB=255,0,0 /
 
! --- Geometric namelists from Blender Collection <Master Collection>
&MOVE ID='Cube_move2'
      T34=1.000000,0.000000,0.000000,0.000000,1.000000,0.000000,0.000000,
        0.000000,1.000000,0.000000,0.000000,0.000000 /
&MOVE ID='Cube_move4' DX=1 DY=2 DZ=3
      SCALEX=2 SCALEY=3 SCALEZ=4 X0=5 Y0=5 Z0=5 AXIS=1,0,0 ROTATION_ANGLE=30 /
&MOVE ID='Cube_move5'
      T34=2.000000,0.000000,0.000000,0.000000,2.598076,1.500000,0.000000,
        -2.000000,3.464101,-3.000000,1.205773,-6.428205 /
! GEOM Vertices: 24 | Faces: 36
&GEOM ID='Cube'
      SURF_ID='Red bc','Dark red bc','Green bc','Dark green bc','Blue bc',
        'Dark blue bc'
      MOVE_ID='Cube_move2'
      VERTS=-1.000000,-1.000000,0.000000,1.000000,-1.000000,0.000000,1.000000,
        1.000000,0.000000,-1.000000,1.000000,0.000000,-1.000000,-1.000000,
        2.000000,1.000000,-1.000000,2.000000,1.000000,1.000000,2.000000,
        -1.000000,1.000000,2.000000
      FACES=5,4,1,1,6,3,7,2,2,5,1,3,3,8,7,4,4,2,1,5,8,6,7,6,5,8,4,1,6,2,3,2,2,6,
        5,3,3,4,8,4,4,3,2,5,8,5,6,6 /
&GEOM ID='Cube_all'
      SURF_ID='Red bc','Dark red bc','Green bc','Dark green bc','Blue bc',
        'Dark blue bc'
      MOVE_ID='Cube_move4'
      VERTS=-1.000000,-1.000000,0.000000,1.000000,-1.000000,0.000000,1.000000,
        1.000000,0.000000,-1.000000,1.000000,0.000000,-1.000000,-1.000000,
        2.000000,1.000000,-1.000000,2.000000,1.000000,1.000000,2.000000,
        -1.000000,1.000000,2.000000
      FACES=5,4,1,1,6,3,7,2,2,5,1,3,3,8,7,4,4,2,1,5,8,6,7,6,5,8,4,1,6,2,3,2,2,6,
        5,3,3,4,8,4,4,3,2,5,8,5,6,6 /
&GEOM ID='Cube_T34'
      SURF_ID='Red bc','Dark red bc','Green bc','Dark green bc','Blue bc',
        'Dark blue bc'
      MOVE_ID='Cube_move5'
      VERTS=-1.000000,-1.000000,0.000000,1.000000,-1.000000,0.000000,1.000000,
        1.000000,0.000000,-1.000000,1.000000,0.000000,-1.000000,-1.000000,
        2.000000,1.000000,-1.000000,2.000000,1.000000,1.000000,2.000000,
        -1.000000,1.000000,2.000000
      FACES=5,4,1,1,6,3,7,2,2,5,1,3,3,8,7,4,4,2,1,5,8,6,7,6,5,8,4,1,6,2,3,2,2,6,
        5,3,3,4,8,4,4,3,2,5,8,5,6,6 /
! MESH Cell Size: 0.400 m, 0.400 m, 0.400 m | Qty: 1000 | Aspect: 1.0 | Poisson: Yes
&MESH ID='Domain' IJK=10,10,10
      XB=-2.000000,2.000000,-2.000000,2.000000,0.000000,4.000000 /

&TAIL /
 
