! Generated by BlenderFDS 5.0.0 on Blender 2.90.1
! Date: <Wed, 04 Nov 2020, 17:17:24>
! File: <not saved>
! --- Case from Blender Scene <cylinders>
&HEAD CHID='cylinders' /
&TIME T_END=1.0 /

! --- Boundary conditions from related Blender Materials
&SURF ID='C0' RGB=255,0,0 /
&SURF ID='C1' RGB=0,255,0 /
&SURF ID='C2' RGB=0,0,255 /
 
! --- Geometric namelists from Blender Collection <Master Collection>
! MESH Cell Size: 0.667 m, 0.500 m, 0.333 m | Qty: 216 | Aspect: 2.0 | Poisson: Yes
&MESH ID='Imported_MESH' IJK=6,6,6
      XB=0.000000,4.000000,0.000000,3.000000,0.000000,2.000000 /
&MOVE ID='RotCyl'
      T34=0.683013,-0.183013,-0.707107,-0.683013,0.183013,-0.707107,0.258819,
        0.965926,-0.000000,0.000000,0.000000,3.000000 /
! GEOM Vertices: 48 | Faces: 84
&GEOM ID='rot-cylinder' SURF_ID='C0','C1','C2' MOVE_ID='RotCyl'
      VERTS=0.000000,0.500000,-2.000000,0.000000,0.500000,2.000000,0.353553,
        0.353553,-2.000000,0.353553,0.353553,2.000000,0.500000,-0.000000,
        -2.000000,0.500000,-0.000000,2.000000,0.353553,-0.353553,-2.000000,
        0.353553,-0.353553,2.000000,-0.000000,-0.500000,-2.000000,-0.000000,
        -0.500000,2.000000,-0.353553,-0.353553,-2.000000,-0.353553,-0.353553,
        2.000000,-0.500000,0.000000,-2.000000,-0.500000,0.000000,2.000000,
        -0.353553,0.353553,-2.000000,-0.353553,0.353553,2.000000
      FACES=2,3,1,2,4,5,3,2,6,7,5,2,8,9,7,2,10,11,9,2,12,13,11,2,6,2,14,3,14,15,
        13,2,16,1,15,2,7,11,15,1,2,4,3,2,4,6,5,2,6,8,7,2,8,10,9,2,10,12,11,2,12,
        14,13,2,6,4,2,3,2,16,14,3,14,12,10,3,10,8,14,3,8,6,14,3,14,16,15,2,16,2,
        1,2,15,1,3,1,3,5,7,1,7,9,11,1,11,13,15,1,15,3,7,1 /
! GEOM Vertices: 48 | Faces: 84
&GEOM ID='x-cylinder' SURF_ID='C0'
      VERTS=0.000000,0.500000,-0.000000,1.000000,0.500000,0.000000,0.000000,
        0.353553,-0.353553,1.000000,0.353553,-0.353553,0.000000,-0.000000,
        -0.500000,1.000000,-0.000000,-0.500000,0.000000,-0.353553,-0.353553,
        1.000000,-0.353553,-0.353553,0.000000,-0.500000,0.000000,1.000000,
        -0.500000,0.000000,0.000000,-0.353553,0.353553,1.000000,-0.353553,
        0.353553,-0.000000,0.000000,0.500000,1.000000,0.000000,0.500000,
        0.000000,0.353553,0.353553,1.000000,0.353553,0.353553
      FACES=2,3,1,1,4,5,3,1,6,7,5,1,8,9,7,1,10,11,9,1,12,13,11,1,12,8,6,1,14,15,
        13,1,16,1,15,1,13,15,5,1,2,4,3,1,4,6,5,1,6,8,7,1,8,10,9,1,10,12,11,1,12,
        14,13,1,4,2,16,1,4,16,14,1,6,4,14,1,12,10,8,1,6,14,12,1,14,16,15,1,16,2,
        1,1,15,1,3,1,5,7,11,1,7,9,11,1,15,3,5,1,11,13,5,1 /
! GEOM Vertices: 48 | Faces: 84
&GEOM ID='y-cylinder' SURF_ID='C1'
      VERTS=0.000000,0.000000,-0.500000,0.000000,1.000000,-0.500000,0.353553,
        0.000000,-0.353553,0.353553,1.000000,-0.353553,0.500000,0.000000,
        0.000000,0.500000,1.000000,0.000000,0.353553,0.000000,0.353553,0.353553,
        1.000000,0.353553,-0.000000,0.000000,0.500000,-0.000000,1.000000,
        0.500000,-0.353553,0.000000,0.353553,-0.353553,1.000000,0.353553,
        -0.500000,0.000000,0.000000,-0.500000,1.000000,-0.000000,-0.353553,
        0.000000,-0.353553,-0.353553,1.000000,-0.353553
      FACES=1,4,3,1,4,5,3,1,6,7,5,1,7,10,9,1,10,11,9,1,12,13,11,1,2,10,8,1,14,
        15,13,1,16,1,15,1,9,11,5,1,1,2,4,1,4,6,5,1,6,8,7,1,7,8,10,1,10,12,11,1,
        12,14,13,1,16,14,12,1,16,12,10,1,2,16,10,1,8,6,4,1,8,4,2,1,14,16,15,1,
        16,2,1,1,15,1,11,1,1,3,11,1,3,5,11,1,13,15,11,1,7,9,5,1 /
! GEOM Vertices: 48 | Faces: 84
&GEOM ID='z-cylinder' SURF_ID='C2'
      VERTS=0.000000,0.500000,0.000000,0.000000,0.500000,1.000000,0.353553,
        0.353553,0.000000,0.353553,0.353553,1.000000,0.500000,-0.000000,
        0.000000,0.500000,-0.000000,1.000000,0.353553,-0.353553,0.000000,
        0.353553,-0.353553,1.000000,-0.000000,-0.500000,0.000000,-0.000000,
        -0.500000,1.000000,-0.353553,-0.353553,0.000000,-0.353553,-0.353553,
        1.000000,-0.500000,0.000000,0.000000,-0.500000,0.000000,1.000000,
        -0.353553,0.353553,0.000000,-0.353553,0.353553,1.000000
      FACES=2,3,1,1,4,5,3,1,6,7,5,1,8,9,7,1,10,11,9,1,12,13,11,1,6,2,14,1,14,15,
        13,1,16,1,15,1,7,11,15,1,2,4,3,1,4,6,5,1,6,8,7,1,8,10,9,1,10,12,11,1,12,
        14,13,1,6,4,2,1,2,16,14,1,14,12,10,1,10,8,14,1,8,6,14,1,14,16,15,1,16,2,
        1,1,15,1,3,1,3,5,7,1,7,9,11,1,11,13,15,1,15,3,7,1 /

&TAIL /
 
