! Generated by BlenderFDS 5.0.0 on Blender 2.90.1
! Date: <Wed, 04 Nov 2020, 17:39:26>
! File: <not saved>
! --- Case from Blender Scene <spheres>
&HEAD CHID='spheres' /
&TIME T_END=1.0 /

! --- Boundary conditions from related Blender Materials
&SURF ID='C0' RGB=255,0,0 /
&SURF ID='C1' RGB=0,255,0 /
&SURF ID='C2' RGB=0,0,255 /
 
! --- Geometric namelists from Blender Collection <Master Collection>
! MESH Cell Size: 0.667 m, 0.500 m, 0.333 m | Qty: 216 | Aspect: 2.0 | Poisson: Yes
&MESH ID='Imported_MESH' IJK=6,6,6
      XB=0.000000,4.000000,0.000000,3.000000,0.000000,2.000000 /
&MOVE ID='RotSphere'
      T34=0.866025,0.500000,0.000000,-0.500000,0.866025,0.000000,0.000000,
        0.000000,1.000000,0.000000,0.000000,3.000000 /
! GEOM Vertices: 486 | Faces: 960
&GEOM ID='rot-sphere' SURF_ID='C0' MOVE_ID='RotSphere'
      VERTS=0.000000,0.000000,-1.000000,0.723607,-0.525725,-0.447220,-0.276388,
        -0.850649,-0.447220,-0.894426,0.000000,-0.447216,-0.276388,0.850649,
        -0.447220,0.723607,0.525725,-0.447220,0.276388,-0.850649,0.447220,
        -0.723607,-0.525725,0.447220,-0.723607,0.525725,0.447220,0.276388,
        0.850649,0.447220,0.894426,0.000000,0.447216,0.000000,0.000000,1.000000,
        -0.232822,-0.716563,-0.657519,-0.162456,-0.499995,-0.850654,-0.077607,
        -0.238853,-0.967950,0.203181,-0.147618,-0.967950,0.425323,-0.309011,
        -0.850654,0.609547,-0.442856,-0.657519,0.531941,-0.681712,-0.502302,
        0.262869,-0.809012,-0.525738,-0.029639,-0.864184,-0.502302,0.812729,
        0.295238,-0.502301,0.850648,0.000000,-0.525736,0.812729,-0.295238,
        -0.502301,0.203181,0.147618,-0.967950,0.425323,0.309011,-0.850654,
        0.609547,0.442856,-0.657519,-0.753442,0.000000,-0.657515,-0.525730,
        0.000000,-0.850652,-0.251147,0.000000,-0.967949,-0.483971,-0.716565,
        -0.502302,-0.688189,-0.499997,-0.525736,-0.831051,-0.238853,-0.502299,
        -0.232822,0.716563,-0.657519,-0.162456,0.499995,-0.850654,-0.077607,
        0.238853,-0.967950,-0.831051,0.238853,-0.502299,-0.688189,0.499997,
        -0.525736,-0.483971,0.716565,-0.502302,-0.029639,0.864184,-0.502302,
        0.262869,0.809012,-0.525738,0.531941,0.681712,-0.502302,0.956626,
        -0.147618,0.251149,0.951058,-0.309013,-0.000000,0.860698,-0.442858,
        -0.251151,0.860698,0.442858,-0.251151,0.951058,0.309013,0.000000,
        0.956626,0.147618,0.251149,0.155215,-0.955422,0.251152,0.000000,
        -1.000000,-0.000000,-0.155215,-0.955422,-0.251152,0.687159,-0.681715,
        -0.251152,0.587786,-0.809017,0.000000,0.436007,-0.864188,0.251152,
        -0.860698,-0.442858,0.251151,-0.951058,-0.309013,-0.000000,-0.956626,
        -0.147618,-0.251149,-0.436007,-0.864188,-0.251152,-0.587786,-0.809017,
        0.000000,-0.687159,-0.681715,0.251152,-0.687159,0.681715,0.251152,
        -0.587786,0.809017,-0.000000,-0.436007,0.864188,-0.251152,-0.956626,
        0.147618,-0.251149,-0.951058,0.309013,0.000000,-0.860698,0.442858,
        0.251151,0.436007,0.864188,0.251152,0.587786,0.809017,-0.000000,
        0.687159,0.681715,-0.251152,-0.155215,0.955422,-0.251152,0.000000,
        1.000000,0.000000,0.155215,0.955422,0.251152,0.831051,-0.238853,
        0.502299,0.688189,-0.499997,0.525736,0.483971,-0.716565,0.502302,
        0.029639,-0.864184,0.502302,-0.262869,-0.809012,0.525738,-0.531941,
        -0.681712,0.502302,-0.812729,-0.295238,0.502301,-0.850648,0.000000,
        0.525736,-0.812729,0.295238,0.502301,-0.531941,0.681712,0.502302,
        -0.262869,0.809012,0.525738,0.029639,0.864184,0.502302,0.483971,
        0.716565,0.502302,0.688189,0.499997,0.525736,0.831051,0.238853,0.502299,
        0.077607,-0.238853,0.967950,0.162456,-0.499995,0.850654,0.232822,
        -0.716563,0.657519,0.753442,0.000000,0.657515,0.525730,0.000000,
        0.850652,0.251147,0.000000,0.967949,-0.203181,-0.147618,0.967950,
        -0.425323,-0.309011,0.850654,-0.609547,-0.442856,0.657519,-0.203181,
        0.147618,0.967950,-0.425323,0.309011,0.850654,-0.609547,0.442856,
        0.657519,0.077607,0.238853,0.967950,0.162456,0.499995,0.850654,0.232822,
        0.716563,0.657519,0.361800,0.262863,0.894429,0.638194,0.262864,0.723610,
        0.447209,0.525728,0.723612,-0.138197,0.425319,0.894430,-0.052790,
        0.688185,0.723612,-0.361804,0.587778,0.723612,-0.447210,0.000000,
        0.894429,-0.670817,0.162457,0.723611,-0.670817,-0.162457,0.723611,
        -0.138197,-0.425319,0.894430,-0.361804,-0.587778,0.723612,-0.052790,
        -0.688185,0.723612,0.361800,-0.262863,0.894429,0.447209,-0.525728,
        0.723612,0.638194,-0.262864,0.723610,0.861804,0.425322,0.276396,
        0.809019,0.587782,0.000000,0.670821,0.688189,0.276397,-0.138199,
        0.951055,0.276397,-0.309016,0.951057,-0.000000,-0.447215,0.850649,
        0.276397,-0.947213,0.162458,0.276396,-1.000000,-0.000000,0.000001,
        -0.947213,-0.162458,0.276397,-0.447216,-0.850648,0.276397,-0.309017,
        -0.951056,-0.000001,-0.138199,-0.951055,0.276397,0.670820,-0.688190,
        0.276396,0.809019,-0.587783,-0.000002,0.861804,-0.425323,0.276394,
        0.309017,0.951056,-0.000000,0.447216,0.850648,-0.276398,0.138199,
        0.951055,-0.276398,-0.809018,0.587783,-0.000000,-0.670819,0.688191,
        -0.276397,-0.861803,0.425324,-0.276396,-0.809018,-0.587783,0.000000,
        -0.861803,-0.425324,-0.276396,-0.670819,-0.688191,-0.276397,0.309017,
        -0.951056,0.000000,0.138199,-0.951055,-0.276398,0.447216,-0.850648,
        -0.276398,1.000000,0.000000,0.000000,0.947213,-0.162458,-0.276396,
        0.947213,0.162458,-0.276396,0.361803,0.587779,-0.723612,0.138197,
        0.425321,-0.894429,0.052789,0.688186,-0.723611,-0.447211,0.525727,
        -0.723612,-0.361801,0.262863,-0.894429,-0.638195,0.262863,-0.723609,
        -0.638195,-0.262864,-0.723609,-0.361801,-0.262864,-0.894428,-0.447211,
        -0.525729,-0.723610,0.670817,0.162457,-0.723611,0.670818,-0.162458,
        -0.723610,0.447211,-0.000001,-0.894428,0.052790,-0.688185,-0.723612,
        0.138199,-0.425321,-0.894429,0.361805,-0.587779,-0.723611
      FACES=1,16,15,1,2,18,24,1,1,15,30,1,1,30,36,1,1,36,25,1,2,24,45,1,3,21,51,
        1,4,33,57,1,5,39,63,1,6,42,69,1,2,45,52,1,3,51,58,1,4,57,64,1,5,63,70,1,
        6,69,46,1,7,75,90,1,8,78,96,1,9,81,99,1,10,84,102,1,11,87,91,1,93,100,
        12,1,92,103,93,1,91,104,92,1,93,103,100,1,103,101,100,1,92,104,103,1,
        104,105,103,1,103,105,101,1,105,102,101,1,91,87,104,1,87,86,104,1,104,
        86,105,1,86,85,105,1,105,85,102,1,85,10,102,1,100,97,12,1,101,106,100,1,
        102,107,101,1,100,106,97,1,106,98,97,1,101,107,106,1,107,108,106,1,106,
        108,98,1,108,99,98,1,102,84,107,1,84,83,107,1,107,83,108,1,83,82,108,1,
        108,82,99,1,82,9,99,1,97,94,12,1,98,109,97,1,99,110,98,1,97,109,94,1,
        109,95,94,1,98,110,109,1,110,111,109,1,109,111,95,1,111,96,95,1,99,81,
        110,1,81,80,110,1,110,80,111,1,80,79,111,1,111,79,96,1,79,8,96,1,94,88,
        12,1,95,112,94,1,96,113,95,1,94,112,88,1,112,89,88,1,95,113,112,1,113,
        114,112,1,112,114,89,1,114,90,89,1,96,78,113,1,78,77,113,1,113,77,114,1,
        77,76,114,1,114,76,90,1,76,7,90,1,88,93,12,1,89,115,88,1,90,116,89,1,88,
        115,93,1,115,92,93,1,89,116,115,1,116,117,115,1,115,117,92,1,117,91,92,
        1,90,75,116,1,75,74,116,1,116,74,117,1,74,73,117,1,117,73,91,1,73,11,91,
        1,48,87,11,1,47,118,48,1,46,119,47,1,48,118,87,1,118,86,87,1,47,119,118,
        1,119,120,118,1,118,120,86,1,120,85,86,1,46,69,119,1,69,68,119,1,119,68,
        120,1,68,67,120,1,120,67,85,1,67,10,85,1,72,84,10,1,71,121,72,1,70,122,
        71,1,72,121,84,1,121,83,84,1,71,122,121,1,122,123,121,1,121,123,83,1,
        123,82,83,1,70,63,122,1,63,62,122,1,122,62,123,1,62,61,123,1,123,61,82,
        1,61,9,82,1,66,81,9,1,65,124,66,1,64,125,65,1,66,124,81,1,124,80,81,1,
        65,125,124,1,125,126,124,1,124,126,80,1,126,79,80,1,64,57,125,1,57,56,
        125,1,125,56,126,1,56,55,126,1,126,55,79,1,55,8,79,1,60,78,8,1,59,127,
        60,1,58,128,59,1,60,127,78,1,127,77,78,1,59,128,127,1,128,129,127,1,127,
        129,77,1,129,76,77,1,58,51,128,1,51,50,128,1,128,50,129,1,50,49,129,1,
        129,49,76,1,49,7,76,1,54,75,7,1,53,130,54,1,52,131,53,1,54,130,75,1,130,
        74,75,1,53,131,130,1,131,132,130,1,130,132,74,1,132,73,74,1,52,45,131,1,
        45,44,131,1,131,44,132,1,44,43,132,1,132,43,73,1,43,11,73,1,67,72,10,1,
        68,133,67,1,69,134,68,1,67,133,72,1,133,71,72,1,68,134,133,1,134,135,
        133,1,133,135,71,1,135,70,71,1,69,42,134,1,42,41,134,1,134,41,135,1,41,
        40,135,1,135,40,70,1,40,5,70,1,61,66,9,1,62,136,61,1,63,137,62,1,61,136,
        66,1,136,65,66,1,62,137,136,1,137,138,136,1,136,138,65,1,138,64,65,1,63,
        39,137,1,39,38,137,1,137,38,138,1,38,37,138,1,138,37,64,1,37,4,64,1,55,
        60,8,1,56,139,55,1,57,140,56,1,55,139,60,1,139,59,60,1,56,140,139,1,140,
        141,139,1,139,141,59,1,141,58,59,1,57,33,140,1,33,32,140,1,140,32,141,1,
        32,31,141,1,141,31,58,1,31,3,58,1,49,54,7,1,50,142,49,1,51,143,50,1,49,
        142,54,1,142,53,54,1,50,143,142,1,143,144,142,1,142,144,53,1,144,52,53,
        1,51,21,143,1,21,20,143,1,143,20,144,1,20,19,144,1,144,19,52,1,19,2,52,
        1,43,48,11,1,44,145,43,1,45,146,44,1,43,145,48,1,145,47,48,1,44,146,145,
        1,146,147,145,1,145,147,47,1,147,46,47,1,45,24,146,1,24,23,146,1,146,23,
        147,1,23,22,147,1,147,22,46,1,22,6,46,1,27,42,6,1,26,148,27,1,25,149,26,
        1,27,148,42,1,148,41,42,1,26,149,148,1,149,150,148,1,148,150,41,1,150,
        40,41,1,25,36,149,1,36,35,149,1,149,35,150,1,35,34,150,1,150,34,40,1,34,
        5,40,1,34,39,5,1,35,151,34,1,36,152,35,1,34,151,39,1,151,38,39,1,35,152,
        151,1,152,153,151,1,151,153,38,1,153,37,38,1,36,30,152,1,30,29,152,1,
        152,29,153,1,29,28,153,1,153,28,37,1,28,4,37,1,28,33,4,1,29,154,28,1,30,
        155,29,1,28,154,33,1,154,32,33,1,29,155,154,1,155,156,154,1,154,156,32,
        1,156,31,32,1,30,15,155,1,15,14,155,1,155,14,156,1,14,13,156,1,156,13,
        31,1,13,3,31,1,22,27,6,1,23,157,22,1,24,158,23,1,22,157,27,1,157,26,27,
        1,23,158,157,1,158,159,157,1,157,159,26,1,159,25,26,1,24,18,158,1,18,17,
        158,1,158,17,159,1,17,16,159,1,159,16,25,1,16,1,25,1,13,21,3,1,14,160,
        13,1,15,161,14,1,13,160,21,1,160,20,21,1,14,161,160,1,161,162,160,1,160,
        162,20,1,162,19,20,1,15,16,161,1,16,17,161,1,161,17,162,1,17,18,162,1,
        162,18,19,1,18,2,19,1 /
! GEOM Vertices: 486 | Faces: 960
&GEOM ID='x-sphere' SURF_ID='C0'
      VERTS=0.500000,0.000000,-0.500000,0.861804,-0.262863,-0.223610,0.361806,
        -0.425325,-0.223610,0.052787,0.000000,-0.223608,0.361806,0.425325,
        -0.223610,0.861804,0.262863,-0.223610,0.638194,-0.425325,0.223610,
        0.138196,-0.262863,0.223610,0.138196,0.262863,0.223610,0.638194,
        0.425325,0.223610,0.947213,0.000000,0.223608,0.500000,0.000000,0.500000,
        0.383589,-0.358282,-0.328760,0.418772,-0.249998,-0.425327,0.461197,
        -0.119426,-0.483975,0.601590,-0.073809,-0.483975,0.712661,-0.154506,
        -0.425327,0.804773,-0.221428,-0.328759,0.765970,-0.340856,-0.251151,
        0.631434,-0.404506,-0.262869,0.485180,-0.432092,-0.251151,0.906365,
        0.147619,-0.251150,0.925324,0.000000,-0.262868,0.906365,-0.147619,
        -0.251150,0.601590,0.073809,-0.483975,0.712661,0.154506,-0.425327,
        0.804773,0.221428,-0.328759,0.123279,0.000000,-0.328757,0.237135,
        0.000000,-0.425326,0.374427,0.000000,-0.483974,0.258014,-0.358282,
        -0.251151,0.155905,-0.249998,-0.262868,0.084475,-0.119427,-0.251149,
        0.383589,0.358282,-0.328760,0.418772,0.249998,-0.425327,0.461197,
        0.119426,-0.483975,0.084475,0.119427,-0.251149,0.155905,0.249998,
        -0.262868,0.258014,0.358282,-0.251151,0.485180,0.432092,-0.251151,
        0.631434,0.404506,-0.262869,0.765970,0.340856,-0.251151,0.978313,
        -0.073809,0.125575,0.975529,-0.154506,-0.000000,0.930349,-0.221429,
        -0.125575,0.930349,0.221429,-0.125575,0.975529,0.154506,0.000000,
        0.978313,0.073809,0.125575,0.577608,-0.477711,0.125576,0.500000,
        -0.500000,-0.000000,0.422392,-0.477711,-0.125576,0.843579,-0.340858,
        -0.125576,0.793893,-0.404508,0.000000,0.718003,-0.432094,0.125576,
        0.069651,-0.221429,0.125575,0.024471,-0.154506,-0.000000,0.021687,
        -0.073809,-0.125575,0.281997,-0.432094,-0.125576,0.206107,-0.404508,
        0.000000,0.156421,-0.340858,0.125576,0.156421,0.340858,0.125576,
        0.206107,0.404508,-0.000000,0.281997,0.432094,-0.125576,0.021687,
        0.073809,-0.125575,0.024471,0.154506,0.000000,0.069651,0.221429,
        0.125575,0.718003,0.432094,0.125576,0.793893,0.404508,-0.000000,
        0.843579,0.340858,-0.125576,0.422392,0.477711,-0.125576,0.500000,
        0.500000,0.000000,0.577608,0.477711,0.125576,0.915525,-0.119427,
        0.251149,0.844095,-0.249998,0.262868,0.741986,-0.358282,0.251151,
        0.514820,-0.432092,0.251151,0.368566,-0.404506,0.262869,0.234030,
        -0.340856,0.251151,0.093635,-0.147619,0.251150,0.074676,0.000000,
        0.262868,0.093635,0.147619,0.251150,0.234030,0.340856,0.251151,0.368566,
        0.404506,0.262869,0.514820,0.432092,0.251151,0.741986,0.358282,0.251151,
        0.844095,0.249998,0.262868,0.915525,0.119427,0.251149,0.538803,
        -0.119426,0.483975,0.581228,-0.249998,0.425327,0.616411,-0.358282,
        0.328760,0.876721,0.000000,0.328757,0.762865,0.000000,0.425326,0.625574,
        0.000000,0.483974,0.398410,-0.073809,0.483975,0.287339,-0.154506,
        0.425327,0.195227,-0.221428,0.328759,0.398410,0.073809,0.483975,
        0.287339,0.154506,0.425327,0.195227,0.221428,0.328759,0.538803,0.119426,
        0.483975,0.581228,0.249998,0.425327,0.616411,0.358282,0.328760,0.680900,
        0.131431,0.447215,0.819097,0.131432,0.361805,0.723605,0.262864,0.361806,
        0.430901,0.212660,0.447215,0.473605,0.344092,0.361806,0.319098,0.293889,
        0.361806,0.276395,0.000000,0.447215,0.164592,0.081229,0.361805,0.164592,
        -0.081229,0.361805,0.430901,-0.212660,0.447215,0.319098,-0.293889,
        0.361806,0.473605,-0.344092,0.361806,0.680900,-0.131431,0.447215,
        0.723605,-0.262864,0.361806,0.819097,-0.131432,0.361805,0.930902,
        0.212661,0.138198,0.904510,0.293891,0.000000,0.835410,0.344095,0.138199,
        0.430901,0.475528,0.138199,0.345492,0.475528,-0.000000,0.276392,
        0.425324,0.138199,0.026393,0.081229,0.138198,0.000000,-0.000000,
        0.000000,0.026394,-0.081229,0.138198,0.276392,-0.425324,0.138198,
        0.345491,-0.475528,-0.000000,0.430900,-0.475528,0.138198,0.835410,
        -0.344095,0.138198,0.904509,-0.293891,-0.000001,0.930902,-0.212662,
        0.138197,0.654509,0.475528,-0.000000,0.723608,0.425324,-0.138199,
        0.569100,0.475527,-0.138199,0.095491,0.293892,-0.000000,0.164591,
        0.344095,-0.138199,0.069098,0.212662,-0.138198,0.095491,-0.293892,
        0.000000,0.069098,-0.212662,-0.138198,0.164590,-0.344095,-0.138199,
        0.654509,-0.475528,0.000000,0.569100,-0.475527,-0.138199,0.723608,
        -0.425324,-0.138199,1.000000,0.000000,0.000000,0.973607,-0.081229,
        -0.138198,0.973607,0.081229,-0.138198,0.680902,0.293890,-0.361806,
        0.569098,0.212661,-0.447215,0.526395,0.344093,-0.361805,0.276395,
        0.262864,-0.361806,0.319099,0.131431,-0.447214,0.180903,0.131431,
        -0.361805,0.180903,-0.131432,-0.361805,0.319099,-0.131432,-0.447214,
        0.276395,-0.262864,-0.361805,0.835409,0.081228,-0.361805,0.835409,
        -0.081229,-0.361805,0.723606,-0.000000,-0.447214,0.526395,-0.344093,
        -0.361806,0.569099,-0.212660,-0.447215,0.680902,-0.293890,-0.361805
      FACES=1,16,15,1,2,18,24,1,1,15,30,1,1,30,36,1,1,36,25,1,2,24,45,1,3,21,51,
        1,4,33,57,1,5,39,63,1,6,42,69,1,2,45,52,1,3,51,58,1,4,57,64,1,5,63,70,1,
        6,69,46,1,7,75,90,1,8,78,96,1,9,81,99,1,10,84,102,1,11,87,91,1,93,100,
        12,1,92,103,93,1,91,104,92,1,93,103,100,1,103,101,100,1,92,104,103,1,
        104,105,103,1,103,105,101,1,105,102,101,1,91,87,104,1,87,86,104,1,104,
        86,105,1,86,85,105,1,105,85,102,1,85,10,102,1,100,97,12,1,101,106,100,1,
        102,107,101,1,100,106,97,1,106,98,97,1,101,107,106,1,107,108,106,1,106,
        108,98,1,108,99,98,1,102,84,107,1,84,83,107,1,107,83,108,1,83,82,108,1,
        108,82,99,1,82,9,99,1,97,94,12,1,98,109,97,1,99,110,98,1,97,109,94,1,
        109,95,94,1,98,110,109,1,110,111,109,1,109,111,95,1,111,96,95,1,99,81,
        110,1,81,80,110,1,110,80,111,1,80,79,111,1,111,79,96,1,79,8,96,1,94,88,
        12,1,95,112,94,1,96,113,95,1,94,112,88,1,112,89,88,1,95,113,112,1,113,
        114,112,1,112,114,89,1,114,90,89,1,96,78,113,1,78,77,113,1,113,77,114,1,
        77,76,114,1,114,76,90,1,76,7,90,1,88,93,12,1,89,115,88,1,90,116,89,1,88,
        115,93,1,115,92,93,1,89,116,115,1,116,117,115,1,115,117,92,1,117,91,92,
        1,90,75,116,1,75,74,116,1,116,74,117,1,74,73,117,1,117,73,91,1,73,11,91,
        1,48,87,11,1,47,118,48,1,46,119,47,1,48,118,87,1,118,86,87,1,47,119,118,
        1,119,120,118,1,118,120,86,1,120,85,86,1,46,69,119,1,69,68,119,1,119,68,
        120,1,68,67,120,1,120,67,85,1,67,10,85,1,72,84,10,1,71,121,72,1,70,122,
        71,1,72,121,84,1,121,83,84,1,71,122,121,1,122,123,121,1,121,123,83,1,
        123,82,83,1,70,63,122,1,63,62,122,1,122,62,123,1,62,61,123,1,123,61,82,
        1,61,9,82,1,66,81,9,1,65,124,66,1,64,125,65,1,66,124,81,1,124,80,81,1,
        65,125,124,1,125,126,124,1,124,126,80,1,126,79,80,1,64,57,125,1,57,56,
        125,1,125,56,126,1,56,55,126,1,126,55,79,1,55,8,79,1,60,78,8,1,59,127,
        60,1,58,128,59,1,60,127,78,1,127,77,78,1,59,128,127,1,128,129,127,1,127,
        129,77,1,129,76,77,1,58,51,128,1,51,50,128,1,128,50,129,1,50,49,129,1,
        129,49,76,1,49,7,76,1,54,75,7,1,53,130,54,1,52,131,53,1,54,130,75,1,130,
        74,75,1,53,131,130,1,131,132,130,1,130,132,74,1,132,73,74,1,52,45,131,1,
        45,44,131,1,131,44,132,1,44,43,132,1,132,43,73,1,43,11,73,1,67,72,10,1,
        68,133,67,1,69,134,68,1,67,133,72,1,133,71,72,1,68,134,133,1,134,135,
        133,1,133,135,71,1,135,70,71,1,69,42,134,1,42,41,134,1,134,41,135,1,41,
        40,135,1,135,40,70,1,40,5,70,1,61,66,9,1,62,136,61,1,63,137,62,1,61,136,
        66,1,136,65,66,1,62,137,136,1,137,138,136,1,136,138,65,1,138,64,65,1,63,
        39,137,1,39,38,137,1,137,38,138,1,38,37,138,1,138,37,64,1,37,4,64,1,55,
        60,8,1,56,139,55,1,57,140,56,1,55,139,60,1,139,59,60,1,56,140,139,1,140,
        141,139,1,139,141,59,1,141,58,59,1,57,33,140,1,33,32,140,1,140,32,141,1,
        32,31,141,1,141,31,58,1,31,3,58,1,49,54,7,1,50,142,49,1,51,143,50,1,49,
        142,54,1,142,53,54,1,50,143,142,1,143,144,142,1,142,144,53,1,144,52,53,
        1,51,21,143,1,21,20,143,1,143,20,144,1,20,19,144,1,144,19,52,1,19,2,52,
        1,43,48,11,1,44,145,43,1,45,146,44,1,43,145,48,1,145,47,48,1,44,146,145,
        1,146,147,145,1,145,147,47,1,147,46,47,1,45,24,146,1,24,23,146,1,146,23,
        147,1,23,22,147,1,147,22,46,1,22,6,46,1,27,42,6,1,26,148,27,1,25,149,26,
        1,27,148,42,1,148,41,42,1,26,149,148,1,149,150,148,1,148,150,41,1,150,
        40,41,1,25,36,149,1,36,35,149,1,149,35,150,1,35,34,150,1,150,34,40,1,34,
        5,40,1,34,39,5,1,35,151,34,1,36,152,35,1,34,151,39,1,151,38,39,1,35,152,
        151,1,152,153,151,1,151,153,38,1,153,37,38,1,36,30,152,1,30,29,152,1,
        152,29,153,1,29,28,153,1,153,28,37,1,28,4,37,1,28,33,4,1,29,154,28,1,30,
        155,29,1,28,154,33,1,154,32,33,1,29,155,154,1,155,156,154,1,154,156,32,
        1,156,31,32,1,30,15,155,1,15,14,155,1,155,14,156,1,14,13,156,1,156,13,
        31,1,13,3,31,1,22,27,6,1,23,157,22,1,24,158,23,1,22,157,27,1,157,26,27,
        1,23,158,157,1,158,159,157,1,157,159,26,1,159,25,26,1,24,18,158,1,18,17,
        158,1,158,17,159,1,17,16,159,1,159,16,25,1,16,1,25,1,13,21,3,1,14,160,
        13,1,15,161,14,1,13,160,21,1,160,20,21,1,14,161,160,1,161,162,160,1,160,
        162,20,1,162,19,20,1,15,16,161,1,16,17,161,1,161,17,162,1,17,18,162,1,
        162,18,19,1,18,2,19,1 /
! GEOM Vertices: 486 | Faces: 960
&GEOM ID='y-sphere' SURF_ID='C1'
      VERTS=0.000000,0.500000,-0.500000,0.361804,0.237137,-0.223610,-0.138194,
        0.074675,-0.223610,-0.447213,0.500000,-0.223608,-0.138194,0.925325,
        -0.223610,0.361804,0.762863,-0.223610,0.138194,0.074675,0.223610,
        -0.361804,0.237137,0.223610,-0.361804,0.762863,0.223610,0.138194,
        0.925325,0.223610,0.447213,0.500000,0.223608,0.000000,0.500000,0.500000,
        -0.116411,0.141718,-0.328760,-0.081228,0.250002,-0.425327,-0.038803,
        0.380574,-0.483975,0.101590,0.426191,-0.483975,0.212661,0.345494,
        -0.425327,0.304773,0.278572,-0.328759,0.265970,0.159144,-0.251151,
        0.131434,0.095494,-0.262869,-0.014820,0.067908,-0.251151,0.406365,
        0.647619,-0.251150,0.425324,0.500000,-0.262868,0.406365,0.352381,
        -0.251150,0.101590,0.573809,-0.483975,0.212661,0.654506,-0.425327,
        0.304773,0.721428,-0.328759,-0.376721,0.500000,-0.328757,-0.262865,
        0.500000,-0.425326,-0.125573,0.500000,-0.483974,-0.241986,0.141718,
        -0.251151,-0.344095,0.250002,-0.262868,-0.415525,0.380573,-0.251149,
        -0.116411,0.858282,-0.328760,-0.081228,0.749998,-0.425327,-0.038803,
        0.619426,-0.483975,-0.415525,0.619427,-0.251149,-0.344095,0.749998,
        -0.262868,-0.241986,0.858282,-0.251151,-0.014820,0.932092,-0.251151,
        0.131434,0.904506,-0.262869,0.265970,0.840856,-0.251151,0.478313,
        0.426191,0.125575,0.475529,0.345494,-0.000000,0.430349,0.278571,
        -0.125575,0.430349,0.721429,-0.125575,0.475529,0.654506,0.000000,
        0.478313,0.573809,0.125575,0.077608,0.022289,0.125576,0.000000,0.000000,
        -0.000000,-0.077608,0.022289,-0.125576,0.343579,0.159142,-0.125576,
        0.293893,0.095492,0.000000,0.218003,0.067906,0.125576,-0.430349,
        0.278571,0.125575,-0.475529,0.345494,-0.000000,-0.478313,0.426191,
        -0.125575,-0.218003,0.067906,-0.125576,-0.293893,0.095492,0.000000,
        -0.343579,0.159142,0.125576,-0.343579,0.840858,0.125576,-0.293893,
        0.904508,-0.000000,-0.218003,0.932094,-0.125576,-0.478313,0.573809,
        -0.125575,-0.475529,0.654506,0.000000,-0.430349,0.721429,0.125575,
        0.218003,0.932094,0.125576,0.293893,0.904508,-0.000000,0.343579,
        0.840858,-0.125576,-0.077608,0.977711,-0.125576,0.000000,1.000000,
        0.000000,0.077608,0.977711,0.125576,0.415525,0.380573,0.251149,0.344095,
        0.250002,0.262868,0.241986,0.141718,0.251151,0.014820,0.067908,0.251151,
        -0.131434,0.095494,0.262869,-0.265970,0.159144,0.251151,-0.406365,
        0.352381,0.251150,-0.425324,0.500000,0.262868,-0.406365,0.647619,
        0.251150,-0.265970,0.840856,0.251151,-0.131434,0.904506,0.262869,
        0.014820,0.932092,0.251151,0.241986,0.858282,0.251151,0.344095,0.749998,
        0.262868,0.415525,0.619427,0.251149,0.038803,0.380574,0.483975,0.081228,
        0.250002,0.425327,0.116411,0.141718,0.328760,0.376721,0.500000,0.328757,
        0.262865,0.500000,0.425326,0.125573,0.500000,0.483974,-0.101590,
        0.426191,0.483975,-0.212661,0.345494,0.425327,-0.304773,0.278572,
        0.328759,-0.101590,0.573809,0.483975,-0.212661,0.654506,0.425327,
        -0.304773,0.721428,0.328759,0.038803,0.619426,0.483975,0.081228,
        0.749998,0.425327,0.116411,0.858282,0.328760,0.180900,0.631431,0.447215,
        0.319097,0.631432,0.361805,0.223605,0.762864,0.361806,-0.069099,
        0.712660,0.447215,-0.026395,0.844092,0.361806,-0.180902,0.793889,
        0.361806,-0.223605,0.500000,0.447215,-0.335408,0.581228,0.361805,
        -0.335408,0.418771,0.361805,-0.069099,0.287340,0.447215,-0.180902,
        0.206111,0.361806,-0.026395,0.155908,0.361806,0.180900,0.368569,
        0.447215,0.223605,0.237136,0.361806,0.319097,0.368568,0.361805,0.430902,
        0.712661,0.138198,0.404510,0.793891,0.000000,0.335410,0.844095,0.138199,
        -0.069099,0.975528,0.138199,-0.154508,0.975528,-0.000000,-0.223608,
        0.925324,0.138199,-0.473607,0.581229,0.138198,-0.500000,0.500000,
        0.000000,-0.473606,0.418771,0.138198,-0.223608,0.074676,0.138198,
        -0.154509,0.024472,-0.000000,-0.069100,0.024472,0.138198,0.335410,
        0.155905,0.138198,0.404509,0.206109,-0.000001,0.430902,0.287338,
        0.138197,0.154509,0.975528,-0.000000,0.223608,0.925324,-0.138199,
        0.069100,0.975527,-0.138199,-0.404509,0.793892,-0.000000,-0.335409,
        0.844095,-0.138199,-0.430902,0.712662,-0.138198,-0.404509,0.206108,
        0.000000,-0.430902,0.287338,-0.138198,-0.335410,0.155905,-0.138199,
        0.154509,0.024472,0.000000,0.069100,0.024473,-0.138199,0.223608,
        0.074676,-0.138199,0.500000,0.500000,0.000000,0.473607,0.418771,
        -0.138198,0.473607,0.581229,-0.138198,0.180902,0.793890,-0.361806,
        0.069098,0.712661,-0.447215,0.026395,0.844093,-0.361805,-0.223605,
        0.762864,-0.361806,-0.180901,0.631431,-0.447214,-0.319097,0.631431,
        -0.361805,-0.319097,0.368568,-0.361805,-0.180901,0.368568,-0.447214,
        -0.223605,0.237136,-0.361805,0.335409,0.581228,-0.361805,0.335409,
        0.418771,-0.361805,0.223605,0.500000,-0.447214,0.026395,0.155907,
        -0.361806,0.069099,0.287340,-0.447215,0.180902,0.206110,-0.361805
      FACES=1,16,15,1,2,18,24,1,1,15,30,1,1,30,36,1,1,36,25,1,2,24,45,1,3,21,51,
        1,4,33,57,1,5,39,63,1,6,42,69,1,2,45,52,1,3,51,58,1,4,57,64,1,5,63,70,1,
        6,69,46,1,7,75,90,1,8,78,96,1,9,81,99,1,10,84,102,1,11,87,91,1,93,100,
        12,1,92,103,93,1,91,104,92,1,93,103,100,1,103,101,100,1,92,104,103,1,
        104,105,103,1,103,105,101,1,105,102,101,1,91,87,104,1,87,86,104,1,104,
        86,105,1,86,85,105,1,105,85,102,1,85,10,102,1,100,97,12,1,101,106,100,1,
        102,107,101,1,100,106,97,1,106,98,97,1,101,107,106,1,107,108,106,1,106,
        108,98,1,108,99,98,1,102,84,107,1,84,83,107,1,107,83,108,1,83,82,108,1,
        108,82,99,1,82,9,99,1,97,94,12,1,98,109,97,1,99,110,98,1,97,109,94,1,
        109,95,94,1,98,110,109,1,110,111,109,1,109,111,95,1,111,96,95,1,99,81,
        110,1,81,80,110,1,110,80,111,1,80,79,111,1,111,79,96,1,79,8,96,1,94,88,
        12,1,95,112,94,1,96,113,95,1,94,112,88,1,112,89,88,1,95,113,112,1,113,
        114,112,1,112,114,89,1,114,90,89,1,96,78,113,1,78,77,113,1,113,77,114,1,
        77,76,114,1,114,76,90,1,76,7,90,1,88,93,12,1,89,115,88,1,90,116,89,1,88,
        115,93,1,115,92,93,1,89,116,115,1,116,117,115,1,115,117,92,1,117,91,92,
        1,90,75,116,1,75,74,116,1,116,74,117,1,74,73,117,1,117,73,91,1,73,11,91,
        1,48,87,11,1,47,118,48,1,46,119,47,1,48,118,87,1,118,86,87,1,47,119,118,
        1,119,120,118,1,118,120,86,1,120,85,86,1,46,69,119,1,69,68,119,1,119,68,
        120,1,68,67,120,1,120,67,85,1,67,10,85,1,72,84,10,1,71,121,72,1,70,122,
        71,1,72,121,84,1,121,83,84,1,71,122,121,1,122,123,121,1,121,123,83,1,
        123,82,83,1,70,63,122,1,63,62,122,1,122,62,123,1,62,61,123,1,123,61,82,
        1,61,9,82,1,66,81,9,1,65,124,66,1,64,125,65,1,66,124,81,1,124,80,81,1,
        65,125,124,1,125,126,124,1,124,126,80,1,126,79,80,1,64,57,125,1,57,56,
        125,1,125,56,126,1,56,55,126,1,126,55,79,1,55,8,79,1,60,78,8,1,59,127,
        60,1,58,128,59,1,60,127,78,1,127,77,78,1,59,128,127,1,128,129,127,1,127,
        129,77,1,129,76,77,1,58,51,128,1,51,50,128,1,128,50,129,1,50,49,129,1,
        129,49,76,1,49,7,76,1,54,75,7,1,53,130,54,1,52,131,53,1,54,130,75,1,130,
        74,75,1,53,131,130,1,131,132,130,1,130,132,74,1,132,73,74,1,52,45,131,1,
        45,44,131,1,131,44,132,1,44,43,132,1,132,43,73,1,43,11,73,1,67,72,10,1,
        68,133,67,1,69,134,68,1,67,133,72,1,133,71,72,1,68,134,133,1,134,135,
        133,1,133,135,71,1,135,70,71,1,69,42,134,1,42,41,134,1,134,41,135,1,41,
        40,135,1,135,40,70,1,40,5,70,1,61,66,9,1,62,136,61,1,63,137,62,1,61,136,
        66,1,136,65,66,1,62,137,136,1,137,138,136,1,136,138,65,1,138,64,65,1,63,
        39,137,1,39,38,137,1,137,38,138,1,38,37,138,1,138,37,64,1,37,4,64,1,55,
        60,8,1,56,139,55,1,57,140,56,1,55,139,60,1,139,59,60,1,56,140,139,1,140,
        141,139,1,139,141,59,1,141,58,59,1,57,33,140,1,33,32,140,1,140,32,141,1,
        32,31,141,1,141,31,58,1,31,3,58,1,49,54,7,1,50,142,49,1,51,143,50,1,49,
        142,54,1,142,53,54,1,50,143,142,1,143,144,142,1,142,144,53,1,144,52,53,
        1,51,21,143,1,21,20,143,1,143,20,144,1,20,19,144,1,144,19,52,1,19,2,52,
        1,43,48,11,1,44,145,43,1,45,146,44,1,43,145,48,1,145,47,48,1,44,146,145,
        1,146,147,145,1,145,147,47,1,147,46,47,1,45,24,146,1,24,23,146,1,146,23,
        147,1,23,22,147,1,147,22,46,1,22,6,46,1,27,42,6,1,26,148,27,1,25,149,26,
        1,27,148,42,1,148,41,42,1,26,149,148,1,149,150,148,1,148,150,41,1,150,
        40,41,1,25,36,149,1,36,35,149,1,149,35,150,1,35,34,150,1,150,34,40,1,34,
        5,40,1,34,39,5,1,35,151,34,1,36,152,35,1,34,151,39,1,151,38,39,1,35,152,
        151,1,152,153,151,1,151,153,38,1,153,37,38,1,36,30,152,1,30,29,152,1,
        152,29,153,1,29,28,153,1,153,28,37,1,28,4,37,1,28,33,4,1,29,154,28,1,30,
        155,29,1,28,154,33,1,154,32,33,1,29,155,154,1,155,156,154,1,154,156,32,
        1,156,31,32,1,30,15,155,1,15,14,155,1,155,14,156,1,14,13,156,1,156,13,
        31,1,13,3,31,1,22,27,6,1,23,157,22,1,24,158,23,1,22,157,27,1,157,26,27,
        1,23,158,157,1,158,159,157,1,157,159,26,1,159,25,26,1,24,18,158,1,18,17,
        158,1,158,17,159,1,17,16,159,1,159,16,25,1,16,1,25,1,13,21,3,1,14,160,
        13,1,15,161,14,1,13,160,21,1,160,20,21,1,14,161,160,1,161,162,160,1,160,
        162,20,1,162,19,20,1,15,16,161,1,16,17,161,1,161,17,162,1,17,18,162,1,
        162,18,19,1,18,2,19,1 /
! GEOM Vertices: 486 | Faces: 960
&GEOM ID='z-sphere' SURF_ID='C2'
      VERTS=0.000000,0.000000,0.000000,0.361804,-0.262863,0.276390,-0.138194,
        -0.425325,0.276390,-0.447213,0.000000,0.276392,-0.138194,0.425325,
        0.276390,0.361804,0.262863,0.276390,0.138194,-0.425325,0.723610,
        -0.361804,-0.262863,0.723610,-0.361804,0.262863,0.723610,0.138194,
        0.425325,0.723610,0.447213,0.000000,0.723608,0.000000,0.000000,1.000000,